.model NMOS NMOS LEVEL=1 VTO=0.7 KP=120u